<configuration>
    <input>
       <net-file value="Otavalo.net.xml"/>
       <additional-files value="Candidatos.add.xml"/>
    </input>
	<processing>
		<time-to-teleport value="-1"/>
	</processing>
</configuration>
